<?xml version="1.0" encoding="ISO-8859-1"?>
<febio_spec version="3.0">
	<Module type="fluid-FSI"/>
	<Control>
		<analysis>DYNAMIC</analysis>
		<time_steps>1550</time_steps>
		<step_size>0.001</step_size>
		<solver>
			<max_refs>5</max_refs>
			<max_ups>50</max_ups>
			<diverge_reform>0</diverge_reform>
			<reform_each_time_step>0</reform_each_time_step>
			<dtol>0.001</dtol>
			<vtol>0.001</vtol>
			<ftol>0.001</ftol>
			<etol>0.01</etol>
			<rtol>0.001</rtol>
			<lstol>0.9</lstol>
			<min_residual>1e-16</min_residual>
			<max_residual>1e+10</max_residual>
			<rhoi>0</rhoi>
			<qnmethod>BROYDEN</qnmethod>
			<symmetric_stiffness>0</symmetric_stiffness>
		</solver>
		<time_stepper>
			<dtmin>0.0001</dtmin>
			<dtmax>0.001</dtmax>
			<max_retries>9</max_retries>
			<opt_iter>53</opt_iter>
		</time_stepper>
	</Control>
	<Globals>
		<Constants>
			<T>0</T>
			<R>0</R>
			<Fc>0</Fc>
		</Constants>
	</Globals>
	<Material>
		<material id="1" name="Material3" type="neo-Hookean">
			<density>1000</density>
			<E>11700</E>
			<v>0.3</v>
		</material>
		<material id="2" name="Material1" type="Mooney-Rivlin">
			<density>1000</density>
			<c1>48500</c1>
			<c2>0</c2>
			<k>50000000</k>
		</material>
		<material id="3" name="Material2" type="Mooney-Rivlin">
			<density>1000</density>
			<c1>48500</c1>
			<c2>0</c2>
			<k>50000000</k>
		</material>
		<material id="4" name="Material6" type="fluid-FSI">
			<fluid type="fluid">
				<density>1060</density>
				<k>2.2e+09</k>
				<viscous type="Carreau">
					<mu0>0.056</mu0>
					<mui>0.00345</mui>
					<lambda>3.313</lambda>
					<n>0.3568</n>
				</viscous>
			</fluid>
			<solid type="neo-Hookean">
				<density>0</density>
				<E>1e-09</E>
				<v>0</v>
			</solid>
		</material>
	</Material>
	<Mesh>
	
			<SurfacePair name="Tied-elastic1">
			<primary>Tied-elastic1_primary</primary>
			<secondary>Tied-elastic1_secondary</secondary>
		</SurfacePair>
	</Mesh>
	<MeshDomains>
		<SolidDomain name="Part1" mat="Material6"/>
		<SolidDomain name="Part2" mat="Material2"/>
		<SolidDomain name="Part3" mat="Material1"/>
		<SolidDomain name="Part4" mat="Material3"/>
	</MeshDomains>
		<MeshData>
	</MeshData>
	<Boundary>
		<bc name="FixedFluidVelocity01" type="fix" node_set="@surface:FixedFluidVelocity01">
			<dofs>wx,wy,wz</dofs>
		</bc>
		<bc name="FixedDisplacement01" type="fix" node_set="@surface:FixedDisplacement01">
			<dofs>x,y,z</dofs>
		</bc>
		<bc name="PrescribedFluidDilatation1" type="prescribe" node_set="PrescribedFluidDilatation1">
			<dof>ef</dof>
			<scale lc="1">-1</scale>
			<relative>0</relative>
		</bc>
	</Boundary>
	<Loads>
		<surface_load name="FluidNormalVelocity01" type="fluid normal velocity" surface="FluidNormalVelocity01">
			<velocity lc="2">-1</velocity>
			<prescribe_nodal_velocities>1</prescribe_nodal_velocities>
			<parabolic>1</parabolic>
			<prescribe_rim_pressure>0</prescribe_rim_pressure>
		</surface_load>
		<surface_load name="FluidFlowResistance01" type="fluid resistance" surface="FluidFlowResistance01">
			<R lc="3">400000000</R>
			<pressure_offset lc="4">10000</pressure_offset>
		</surface_load>
		<surface_load name="FluidFlowResistance02" type="fluid resistance" surface="FluidFlowResistance02">
			<R lc="5">400000000</R>
			<pressure_offset lc="6">10000</pressure_offset>
		</surface_load>
		<surface_load name="FluidBackflowStabilization01" type="fluid backflow stabilization" surface="FluidBackflowStabilization01">
			<beta lc="7">1</beta>
		</surface_load>
		<surface_load name="FluidBackflowStabilization02" type="fluid backflow stabilization" surface="FluidBackflowStabilization02">
			<beta lc="8">1</beta>
		</surface_load>
		<surface_load name="FluidTangentialStabilization01" type="fluid tangential stabilization" surface="FluidTangentialStabilization01">
			<beta lc="9">1</beta>
		</surface_load>
		<surface_load name="FluidTangentialStabilization02" type="fluid tangential stabilization" surface="FluidTangentialStabilization02">
			<beta lc="10">1</beta>
		</surface_load>
		<surface_load name="FSInterfaceTraction01" type="fluid-FSI traction" surface="FSInterfaceTraction01">
		</surface_load>
	</Loads>
	<Contact>
		<contact type="tied-elastic" name="Tied-elastic1" surface_pair="Tied-elastic1">
			<laugon>0</laugon>
			<tolerance>0.2</tolerance>
			<gaptol>0</gaptol>
			<penalty>1</penalty>
			<auto_penalty>1</auto_penalty>
			<two_pass>0</two_pass>
			<knmult>1</knmult>
			<search_tol>0.02</search_tol>
			<symmetric_stiffness>0</symmetric_stiffness>
			<search_radius>0.014</search_radius>
			<minaug>0</minaug>
			<maxaug>10</maxaug>
			<update_penalty>0</update_penalty>
		</contact>
	</Contact>
	<LoadData>
		<load_controller id="1" type="loadcurve">
			<interpolate>SMOOTH</interpolate>
			<points>
				<point>0,0</point>
				<point>0.00510204081633,4.66955726149e-09</point>
				<point>0.0102040816327,1.86590408336e-08</point>
				<point>0.015306122449,4.19109649275e-08</point>
				<point>0.0204081632653,7.43297823996e-08</point>
				<point>0.0255102040816,1.15782277375e-07</point>
				<point>0.030612244898,1.66098112661e-07</point>
				<point>0.0357142857143,2.25070529696e-07</point>
				<point>0.0408163265306,2.92457198171e-07</point>
				<point>0.0459183673469,3.6798121181e-07</point>
				<point>0.0510204081633,4.5133222624e-07</point>
				<point>0.0561224489796,5.42167734266e-07</point>
				<point>0.0612244897959,6.40114473299e-07</point>
				<point>0.0663265306122,7.44769959181e-07</point>
				<point>0.0714285714286,8.55704140071e-07</point>
				<point>0.0765306122449,9.72461163624e-07</point>
				<point>0.0816326530612,1.09456125019e-06</point>
				<point>0.0867346938776,1.22150266431e-06</point>
				<point>0.0918367346939,1.3527637765e-06</point>
				<point>0.0969387755102,1.48780520669e-06</point>
<!-- ... 30 like lines cut -->
			</points>
		</load_controller>
		<load_controller id="2" type="loadcurve">
			<interpolate>SMOOTH</interpolate>
			<points>
				<point>0,0</point>
				<point>0.00102041,0.00010273</point>
				<point>0.00204082,0.000410499</point>
				<point>0.00306122,0.000922041</point>
				<point>0.00408163,0.00163525</point>
				<point>0.00510204,0.00254721</point>
				<point>0.00612245,0.00365416</point>
				<point>0.00714286,0.00495155</point>
				<point>0.00816327,0.00643405</point>
				<point>0.00918367,0.00809558</point>
				<point>0.0102041,0.0099293</point>
				<point>0.0112245,0.0119277</point>
				<point>0.0122449,0.0140825</point>
				<point>0.0132653,0.0163849</point>
				<point>0.0142857,0.0188255</point>
				<point>0.0153061,0.0213941</point>
				<point>0.0163265,0.0240803</point>
				<point>0.0173469,0.026873</point>
				<point>0.0183673,0.0297608</point>
				<point>0.0193878,0.0327317</point>
<!-- ... 1333 like lines cut -->
			</points>
		</load_controller>
		<load_controller id="3" type="loadcurve">
			<interpolate>STEP</interpolate>
			<points>
				<point>0,0</point>
				<point>1,1</point>
			</points>
		</load_controller>
		<load_controller id="4" type="loadcurve">
			<interpolate>SMOOTH</interpolate>
			<points>
				<point>0,0</point>
				<point>0.00510204081633,0.00102730362483</point>
				<point>0.0102040816327,0.00410499308838</point>
				<point>0.015306122449,0.00922042150447</point>
				<point>0.0204081632653,0.0163525684805</point>
				<point>0.0255102040816,0.0254721264947</point>
				<point>0.030612244898,0.036541621327</point>
				<point>0.0357142857143,0.0495155660488</point>
				<point>0.0408163265306,0.0643406479383</point>
				<point>0.0459183673469,0.0809559475541</point>
				<point>0.0510204081633,0.099293189066</point>
				<point>0.0561224489796,0.119277020815</point>
				<point>0.0612244897959,0.140825324951</point>
				<point>0.0663265306122,0.163849554869</point>
				<point>0.0714285714286,0.188255099071</point>
				<point>0.0765306122449,0.213941669939</point>
				<point>0.0816326530612,0.240803715845</point>
				<point>0.0867346938776,0.26873085488</point>
				<point>0.0918367346939,0.297608328439</point>
				<point>0.0969387755102,0.327317472789</point>
<!-- ... 30 like lines cut -->
			</points>
		</load_controller>
		<load_controller id="5" type="loadcurve">
			<interpolate>STEP</interpolate>
			<points>
				<point>0,0</point>
				<point>1,1</point>
			</points>
		</load_controller>
		<load_controller id="6" type="loadcurve">
			<interpolate>SMOOTH</interpolate>
			<points>
				<point>0,0</point>
				<point>0.00510204081633,0.00102730362483</point>
				<point>0.0102040816327,0.00410499308838</point>
				<point>0.015306122449,0.00922042150447</point>
				<point>0.0204081632653,0.0163525684805</point>
				<point>0.0255102040816,0.0254721264947</point>
				<point>0.030612244898,0.036541621327</point>
				<point>0.0357142857143,0.0495155660488</point>
				<point>0.0408163265306,0.0643406479383</point>
				<point>0.0459183673469,0.0809559475541</point>
				<point>0.0510204081633,0.099293189066</point>
				<point>0.0561224489796,0.119277020815</point>
				<point>0.0612244897959,0.140825324951</point>
				<point>0.0663265306122,0.163849554869</point>
				<point>0.0714285714286,0.188255099071</point>
				<point>0.0765306122449,0.213941669939</point>
				<point>0.0816326530612,0.240803715845</point>
				<point>0.0867346938776,0.26873085488</point>
				<point>0.0918367346939,0.297608328439</point>
				<point>0.0969387755102,0.327317472789</point>
<!-- ... 30 like lines cut -->
			</points>
		</load_controller>
		<load_controller id="7" type="loadcurve">
			<interpolate>STEP</interpolate>
			<points>
				<point>0,0</point>
				<point>1,1</point>
			</points>
		</load_controller>
		<load_controller id="8" type="loadcurve">
			<interpolate>STEP</interpolate>
			<points>
				<point>0,0</point>
				<point>1,1</point>
			</points>
		</load_controller>
		<load_controller id="9" type="loadcurve">
			<interpolate>STEP</interpolate>
			<points>
				<point>0,0</point>
				<point>1,1</point>
			</points>
		</load_controller>
		<load_controller id="10" type="loadcurve">
			<interpolate>STEP</interpolate>
			<points>
				<point>0,0</point>
				<point>1,1</point>
			</points>
		</load_controller>
	</LoadData>
	<Output>
		<plotfile type="febio">
			<var type="acceleration"/>
			<var type="contact area"/>
			<var type="contact force"/>
			<var type="contact gap"/>
			<var type="contact penalty"/>
			<var type="contact pressure"/>
			<var type="contact traction"/>
			<var type="density"/>
			<var type="deviatoric fiber stretch"/>
			<var type="displacement"/>
			<var type="enclosed volume" surface="Volume"/>
			<var type="fiber stretch"/>
			<var type="fiber vector"/>
			<var type="relative volume"/>
			<var type="stress"/>
			<var type="velocity"/>
			<var type="fluid pressure"/>
			<var type="fluid acceleration"/>
			<var type="fluid density"/>
			<var type="fluid dilatation"/>
			<var type="fluid mass flow rate" surface="FluidBackflowStabilization1"/>
			<var type="fluid mass flow rate" surface="FluidBackflowStabilization2"/>
			<var type="fluid mass flow rate" surface="FluidNormalVelocity1"/>
			<var type="fluid rate of deformation"/>
			<var type="fluid shear viscosity"/>
			<var type="fluid stress"/>
			<var type="fluid velocity"/>
			<var type="fluid volume ratio"/>
			<var type="fluid vorticity"/>
			<var type="nodal fluid velocity"/>
			<var type="relative fluid velocity"/>
			<var type="nodal relative fluid velocity"/>
			<var type="fluid density rate"/>
		</plotfile>
	</Output>
</febio_spec>