<?xml version="1.0" encoding="ISO-8859-1"?>
<febio_spec version="3.0">
	<Module type="fluid-FSI"/>
	<Control>
		<analysis>DYNAMIC</analysis>
		<time_steps>1000</time_steps>
		<step_size>0.002</step_size>
		<solver>
			<max_refs>5</max_refs>
			<max_ups>50</max_ups>
			<diverge_reform>0</diverge_reform>
			<reform_each_time_step>0</reform_each_time_step>
			<dtol>0.001</dtol>
			<vtol>0.001</vtol>
			<ftol>0.001</ftol>
			<etol>0.01</etol>
			<rtol>0.001</rtol>
			<lstol>0.9</lstol>
			<min_residual>1e-20</min_residual>
			<max_residual>1e+20</max_residual>
			<rhoi>0</rhoi>
			<qnmethod>BROYDEN</qnmethod>
			<symmetric_stiffness>0</symmetric_stiffness>
		</solver>
		<time_stepper>
			<dtmin>0.0002</dtmin>
			<dtmax>0.002</dtmax>
			<max_retries>5</max_retries>
			<opt_iter>50</opt_iter>
		</time_stepper>
	</Control>
	<Globals>
		<Constants>
			<T>0</T>
			<R>0</R>
			<Fc>0</Fc>
		</Constants>
	</Globals>
	<Material>
		<material id="1" name="Fluid" type="fluid-FSI">
			<fluid type="fluid">
				<density>1000</density>
				<k>1e+09</k>
				<viscous type="Newtonian fluid">
					<mu>0.001</mu>
					<kappa>0</kappa>
				</viscous>
			</fluid>
			<solid type="neo-Hookean">
				<density>0</density>
				<E>1e-09</E>
				<v>0</v>
			</solid>
		</material>
		<material id="2" name="Flap" type="neo-Hookean">
			<density>1000</density>
			<E>100000</E>
			<v>0.3</v>
		</material>
	</Material>
	<Mesh>
		<Nodes name="MergedObject1">
			<node id="1">-0.05,-0.01,0</node>
			<node id="2">-0.05,-0.01,0.002</node>
			<node id="3">-0.05,-0.009,0</node>
			<node id="4">-0.05,-0.009,0.002</node>
			<node id="5">-0.05,-0.008,0</node>
			<node id="6">-0.05,-0.008,0.002</node>
			<node id="7">-0.05,-0.007,0</node>
			<node id="8">-0.05,-0.007,0.002</node>
			<node id="9">-0.05,-0.006,0</node>
			<node id="10">-0.05,-0.006,0.002</node>
			<node id="11">-0.05,-0.005,0</node>
			<node id="12">-0.05,-0.005,0.002</node>
			<node id="13">-0.05,-0.004,0</node>
			<node id="14">-0.05,-0.004,0.002</node>
			<node id="15">-0.05,-0.003,0</node>
			<node id="16">-0.05,-0.003,0.002</node>
			<node id="17">-0.05,-0.002,0</node>
			<node id="18">-0.05,-0.002,0.002</node>
			<node id="19">-0.05,-0.001,0</node>
			<node id="20">-0.05,-0.001,0.002</node>
<!-- ... 5318 like lines cut -->
		</Nodes>
		<Elements type="hex8" name="Fluid">
			<elem id="1">3,45,47,5,4,46,48,6</elem>
			<elem id="2">5,47,49,7,6,48,50,8</elem>
			<elem id="3">7,49,51,9,8,50,52,10</elem>
			<elem id="4">9,51,53,11,10,52,54,12</elem>
			<elem id="5">11,53,55,13,12,54,56,14</elem>
			<elem id="6">13,55,57,15,14,56,58,16</elem>
			<elem id="7">15,57,59,17,16,58,60,18</elem>
			<elem id="8">17,59,61,19,18,60,62,20</elem>
			<elem id="9">19,61,63,21,20,62,64,22</elem>
			<elem id="10">21,63,65,23,22,64,66,24</elem>
			<elem id="11">23,65,67,25,24,66,68,26</elem>
			<elem id="12">25,67,69,27,26,68,70,28</elem>
			<elem id="13">27,69,71,29,28,70,72,30</elem>
			<elem id="14">29,71,73,31,30,72,74,32</elem>
			<elem id="15">31,73,75,33,32,74,76,34</elem>
			<elem id="16">33,75,77,35,34,76,78,36</elem>
			<elem id="17">35,77,79,37,36,78,80,38</elem>
			<elem id="18">37,79,81,39,38,80,82,40</elem>
			<elem id="19">39,81,83,41,40,82,84,42</elem>
			<elem id="20">45,87,89,47,46,88,90,48</elem>
<!-- ... 2488 like lines cut -->
		</Elements>
		<Elements type="penta6" name="Fluid__2">
			<elem id="2509">2019,4590,4606,2020,4594,4610</elem>
			<elem id="2510">2019,4606,4598,2020,4610,4602</elem>
			<elem id="2511">2147,4759,4774,2148,4767,4778</elem>
			<elem id="2512">2147,4774,4758,2148,4778,4766</elem>
			<elem id="2513">5301,4738,5286,5302,4746,5290</elem>
			<elem id="2514">5301,5286,4723,5302,5290,4727</elem>
			<elem id="2515">5337,4894,5294,5338,4898,5298</elem>
			<elem id="2516">5337,5294,4747,5338,5298,4751</elem>
		</Elements>
		<Elements type="hex8" name="Flap">
			<elem id="2517">5299,5303,5305,2059,5300,5304,5306,2060</elem>
			<elem id="2518">2059,5305,5307,2061,2060,5306,5308,2062</elem>
			<elem id="2519">2061,5307,5309,2063,2062,5308,5310,2064</elem>
			<elem id="2520">2063,5309,5311,2065,2064,5310,5312,2066</elem>
			<elem id="2521">2065,5311,5313,2067,2066,5312,5314,2068</elem>
			<elem id="2522">2067,5313,5315,2069,2068,5314,5316,2070</elem>
			<elem id="2523">2069,5315,5317,2071,2070,5316,5318,2072</elem>
			<elem id="2524">2071,5317,5319,2073,2072,5318,5320,2074</elem>
			<elem id="2525">2073,5319,5321,2075,2074,5320,5322,2076</elem>
			<elem id="2526">2075,5321,5323,2077,2076,5322,5324,2078</elem>
			<elem id="2527">2077,5323,5325,2079,2078,5324,5326,2080</elem>
			<elem id="2528">2079,5325,5327,2081,2080,5326,5328,2082</elem>
			<elem id="2529">2081,5327,5329,2083,2082,5328,5330,2084</elem>
			<elem id="2530">2083,5329,5331,2085,2084,5330,5332,2086</elem>
			<elem id="2531">2085,5331,5333,2087,2086,5332,5334,2088</elem>
			<elem id="2532">2087,5333,2097,5301,2088,5334,2098,5302</elem>
			<elem id="2533">5303,5335,2107,5305,5304,5336,2108,5306</elem>
			<elem id="2534">5305,2107,2109,5307,5306,2108,2110,5308</elem>
			<elem id="2535">5307,2109,2111,5309,5308,2110,2112,5310</elem>
			<elem id="2536">5309,2111,2113,5311,5310,2112,2114,5312</elem>
<!-- ... 12 like lines cut -->
		</Elements>
		<Surface name="FixedDisplacement-X-left-right">
			<quad4 id="1">5,3,4,6</quad4>
			<quad4 id="2">7,5,6,8</quad4>
			<quad4 id="3">9,7,8,10</quad4>
			<quad4 id="4">11,9,10,12</quad4>
			<quad4 id="5">13,11,12,14</quad4>
			<quad4 id="6">15,13,14,16</quad4>
			<quad4 id="7">17,15,16,18</quad4>
			<quad4 id="8">19,17,18,20</quad4>
			<quad4 id="9">21,19,20,22</quad4>
			<quad4 id="10">23,21,22,24</quad4>
			<quad4 id="11">25,23,24,26</quad4>
			<quad4 id="12">27,25,26,28</quad4>
			<quad4 id="13">29,27,28,30</quad4>
			<quad4 id="14">31,29,30,32</quad4>
			<quad4 id="15">33,31,32,34</quad4>
			<quad4 id="16">35,33,34,36</quad4>
			<quad4 id="17">37,35,36,38</quad4>
			<quad4 id="18">39,37,38,40</quad4>
			<quad4 id="19">41,39,40,42</quad4>
			<quad4 id="20">3,4207,4215,4</quad4>
<!-- ... 28 like lines cut -->
		</Surface>
		<Surface name="FixedDisplacement-XY-bottom">
			<quad4 id="1">1,43,44,2</quad4>
			<quad4 id="2">43,85,86,44</quad4>
			<quad4 id="3">85,127,128,86</quad4>
			<quad4 id="4">127,169,170,128</quad4>
			<quad4 id="5">169,211,212,170</quad4>
			<quad4 id="6">211,253,254,212</quad4>
			<quad4 id="7">253,295,296,254</quad4>
			<quad4 id="8">295,337,338,296</quad4>
			<quad4 id="9">337,379,380,338</quad4>
			<quad4 id="10">379,421,422,380</quad4>
			<quad4 id="11">421,463,464,422</quad4>
			<quad4 id="12">463,505,506,464</quad4>
			<quad4 id="13">505,547,548,506</quad4>
			<quad4 id="14">547,589,590,548</quad4>
			<quad4 id="15">589,631,632,590</quad4>
			<quad4 id="16">631,673,674,632</quad4>
			<quad4 id="17">673,715,716,674</quad4>
			<quad4 id="18">715,757,758,716</quad4>
			<quad4 id="19">757,799,800,758</quad4>
			<quad4 id="20">799,841,842,800</quad4>
<!-- ... 80 like lines cut -->
		</Surface>
		<Surface name="FixedDisplacement-Z-front-back">
			<quad4 id="1">5,47,45,3</quad4>
			<quad4 id="2">7,49,47,5</quad4>
			<quad4 id="3">9,51,49,7</quad4>
			<quad4 id="4">11,53,51,9</quad4>
			<quad4 id="5">13,55,53,11</quad4>
			<quad4 id="6">15,57,55,13</quad4>
			<quad4 id="7">17,59,57,15</quad4>
			<quad4 id="8">19,61,59,17</quad4>
			<quad4 id="9">21,63,61,19</quad4>
			<quad4 id="10">23,65,63,21</quad4>
			<quad4 id="11">25,67,65,23</quad4>
			<quad4 id="12">27,69,67,25</quad4>
			<quad4 id="13">29,71,69,27</quad4>
			<quad4 id="14">31,73,71,29</quad4>
			<quad4 id="15">33,75,73,31</quad4>
			<quad4 id="16">35,77,75,33</quad4>
			<quad4 id="17">37,79,77,35</quad4>
			<quad4 id="18">39,81,79,37</quad4>
			<quad4 id="19">41,83,81,39</quad4>
			<quad4 id="20">47,89,87,45</quad4>
<!-- ... 2456 like lines cut -->
			<tri3 id="2477">2019,4606,4590</tri3>
			<quad4 id="2478">4605,4589,4590,4606</quad4>
			<quad4 id="2479">4604,4588,4589,4605</quad4>
			<quad4 id="2480">4603,4587,4588,4604</quad4>
			<quad4 id="2481">5299,2017,4587,4603</quad4>
			<tri3 id="2482">2019,4598,4606</tri3>
			<quad4 id="2483">4597,4605,4606,4598</quad4>
			<quad4 id="2484">4596,4604,4605,4597</quad4>
			<quad4 id="2485">4595,4603,4604,4596</quad4>
			<quad4 id="2486">2059,5299,4603,4595</quad4>
			<tri3 id="2487">2147,4774,4759</tri3>
			<quad4 id="2488">4773,4760,4759,4774</quad4>
			<quad4 id="2489">4772,4761,4760,4773</quad4>
			<quad4 id="2490">4771,4762,4761,4772</quad4>
			<quad4 id="2491">5335,2107,4762,4771</quad4>
			<tri3 id="2492">2147,4758,4774</tri3>
			<quad4 id="2493">4757,4773,4774,4758</quad4>
			<quad4 id="2494">4756,4772,4773,4757</quad4>
			<quad4 id="2495">4755,4771,4772,4756</quad4>
			<quad4 id="2496">2145,5335,4771,4755</quad4>
			<tri3 id="2497">5301,5286,4738</tri3>
			<quad4 id="2498">5285,4737,4738,5286</quad4>
			<quad4 id="2499">5284,4736,4737,5285</quad4>
			<quad4 id="2500">5283,4735,4736,5284</quad4>
			<quad4 id="2501">2051,2089,4735,5283</quad4>
			<tri3 id="2502">5301,4723,5286</tri3>
			<quad4 id="2503">4724,5285,5286,4723</quad4>
			<quad4 id="2504">4725,5284,5285,4724</quad4>
			<quad4 id="2505">4726,5283,5284,4725</quad4>
			<quad4 id="2506">2049,2051,5283,4726</quad4>
			<tri3 id="2507">5337,5294,4894</tri3>
			<quad4 id="2508">5293,4893,4894,5294</quad4>
			<quad4 id="2509">5292,4892,4893,5293</quad4>
			<quad4 id="2510">5291,4891,4892,5292</quad4>
			<quad4 id="2511">2179,2177,4891,5291</quad4>
			<tri3 id="2512">5337,4747,5294</tri3>
			<quad4 id="2513">4748,5293,5294,4747</quad4>
			<quad4 id="2514">4749,5292,5293,4748</quad4>
			<quad4 id="2515">4750,5291,5292,4749</quad4>
			<quad4 id="2516">2137,2179,5291,4750</quad4>
			<quad4 id="2517">4,46,48,6</quad4>
			<quad4 id="2518">6,48,50,8</quad4>
			<quad4 id="2519">8,50,52,10</quad4>
			<quad4 id="2520">10,52,54,12</quad4>
			<quad4 id="2521">12,54,56,14</quad4>
			<quad4 id="2522">14,56,58,16</quad4>
			<quad4 id="2523">16,58,60,18</quad4>
			<quad4 id="2524">18,60,62,20</quad4>
			<quad4 id="2525">20,62,64,22</quad4>
			<quad4 id="2526">22,64,66,24</quad4>
			<quad4 id="2527">24,66,68,26</quad4>
			<quad4 id="2528">26,68,70,28</quad4>
			<quad4 id="2529">28,70,72,30</quad4>
			<quad4 id="2530">30,72,74,32</quad4>
			<quad4 id="2531">32,74,76,34</quad4>
			<quad4 id="2532">34,76,78,36</quad4>
<!-- ... 2460 like lines cut -->
			<tri3 id="4993">2020,4594,4610</tri3>
			<quad4 id="4994">4610,4594,4593,4609</quad4>
			<quad4 id="4995">4609,4593,4592,4608</quad4>
			<quad4 id="4996">4608,4592,4591,4607</quad4>
			<quad4 id="4997">4607,4591,2018,5300</quad4>
			<tri3 id="4998">2020,4610,4602</tri3>
			<quad4 id="4999">4602,4610,4609,4601</quad4>
			<quad4 id="5000">4601,4609,4608,4600</quad4>
			<quad4 id="5001">4600,4608,4607,4599</quad4>
			<quad4 id="5002">4599,4607,5300,2060</quad4>
			<tri3 id="5003">2148,4767,4778</tri3>
			<quad4 id="5004">4778,4767,4768,4777</quad4>
			<quad4 id="5005">4777,4768,4769,4776</quad4>
			<quad4 id="5006">4776,4769,4770,4775</quad4>
			<quad4 id="5007">4775,4770,2108,5336</quad4>
			<tri3 id="5008">2148,4778,4766</tri3>
			<quad4 id="5009">4766,4778,4777,4765</quad4>
			<quad4 id="5010">4765,4777,4776,4764</quad4>
			<quad4 id="5011">4764,4776,4775,4763</quad4>
			<quad4 id="5012">4763,4775,5336,2146</quad4>
			<tri3 id="5013">5302,4746,5290</tri3>
			<quad4 id="5014">5290,4746,4745,5289</quad4>
			<quad4 id="5015">5289,4745,4744,5288</quad4>
			<quad4 id="5016">5288,4744,4743,5287</quad4>
			<quad4 id="5017">5287,4743,2090,2052</quad4>
			<tri3 id="5018">5302,5290,4727</tri3>
			<quad4 id="5019">4727,5290,5289,4728</quad4>
			<quad4 id="5020">4728,5289,5288,4729</quad4>
			<quad4 id="5021">4729,5288,5287,4730</quad4>
			<quad4 id="5022">4730,5287,2052,2050</quad4>
			<tri3 id="5023">5338,4898,5298</tri3>
			<quad4 id="5024">5298,4898,4897,5297</quad4>
			<quad4 id="5025">5297,4897,4896,5296</quad4>
			<quad4 id="5026">5296,4896,4895,5295</quad4>
			<quad4 id="5027">5295,4895,2178,2180</quad4>
			<tri3 id="5028">5338,5298,4751</tri3>
			<quad4 id="5029">4751,5298,5297,4752</quad4>
			<quad4 id="5030">4752,5297,5296,4753</quad4>
			<quad4 id="5031">4753,5296,5295,4754</quad4>
			<quad4 id="5032">4754,5295,2180,2138</quad4>
			<quad4 id="5033">2059,5305,5303,5299</quad4>
			<quad4 id="5034">2061,5307,5305,2059</quad4>
			<quad4 id="5035">2063,5309,5307,2061</quad4>
			<quad4 id="5036">2065,5311,5309,2063</quad4>
			<quad4 id="5037">2067,5313,5311,2065</quad4>
			<quad4 id="5038">2069,5315,5313,2067</quad4>
			<quad4 id="5039">2071,5317,5315,2069</quad4>
			<quad4 id="5040">2073,5319,5317,2071</quad4>
			<quad4 id="5041">2075,5321,5319,2073</quad4>
			<quad4 id="5042">2077,5323,5321,2075</quad4>
			<quad4 id="5043">2079,5325,5323,2077</quad4>
			<quad4 id="5044">2081,5327,5325,2079</quad4>
			<quad4 id="5045">2083,5329,5327,2081</quad4>
			<quad4 id="5046">2085,5331,5329,2083</quad4>
			<quad4 id="5047">2087,5333,5331,2085</quad4>
			<quad4 id="5048">5301,2097,5333,2087</quad4>
<!-- ... 48 like lines cut -->
		</Surface>
		<Surface name="FixedFluidVelocity-XY-no-slip-faces">
			<quad4 id="1">1,43,44,2</quad4>
			<quad4 id="2">43,85,86,44</quad4>
			<quad4 id="3">85,127,128,86</quad4>
			<quad4 id="4">127,169,170,128</quad4>
			<quad4 id="5">169,211,212,170</quad4>
			<quad4 id="6">211,253,254,212</quad4>
			<quad4 id="7">253,295,296,254</quad4>
			<quad4 id="8">295,337,338,296</quad4>
			<quad4 id="9">337,379,380,338</quad4>
			<quad4 id="10">379,421,422,380</quad4>
			<quad4 id="11">421,463,464,422</quad4>
			<quad4 id="12">463,505,506,464</quad4>
			<quad4 id="13">505,547,548,506</quad4>
			<quad4 id="14">547,589,590,548</quad4>
			<quad4 id="15">589,631,632,590</quad4>
			<quad4 id="16">631,673,674,632</quad4>
			<quad4 id="17">673,715,716,674</quad4>
			<quad4 id="18">715,757,758,716</quad4>
			<quad4 id="19">757,799,800,758</quad4>
			<quad4 id="20">799,841,842,800</quad4>
<!-- ... 112 like lines cut -->
		</Surface>
		<Surface name="FixedFluidVelocity-Z-front-back">
			<quad4 id="1">5,47,45,3</quad4>
			<quad4 id="2">7,49,47,5</quad4>
			<quad4 id="3">9,51,49,7</quad4>
			<quad4 id="4">11,53,51,9</quad4>
			<quad4 id="5">13,55,53,11</quad4>
			<quad4 id="6">15,57,55,13</quad4>
			<quad4 id="7">17,59,57,15</quad4>
			<quad4 id="8">19,61,59,17</quad4>
			<quad4 id="9">21,63,61,19</quad4>
			<quad4 id="10">23,65,63,21</quad4>
			<quad4 id="11">25,67,65,23</quad4>
			<quad4 id="12">27,69,67,25</quad4>
			<quad4 id="13">29,71,69,27</quad4>
			<quad4 id="14">31,73,71,29</quad4>
			<quad4 id="15">33,75,73,31</quad4>
			<quad4 id="16">35,77,75,33</quad4>
			<quad4 id="17">37,79,77,35</quad4>
			<quad4 id="18">39,81,79,37</quad4>
			<quad4 id="19">41,83,81,39</quad4>
			<quad4 id="20">47,89,87,45</quad4>
<!-- ... 2456 like lines cut -->
			<tri3 id="2477">2019,4606,4590</tri3>
			<quad4 id="2478">4605,4589,4590,4606</quad4>
			<quad4 id="2479">4604,4588,4589,4605</quad4>
			<quad4 id="2480">4603,4587,4588,4604</quad4>
			<quad4 id="2481">5299,2017,4587,4603</quad4>
			<tri3 id="2482">2019,4598,4606</tri3>
			<quad4 id="2483">4597,4605,4606,4598</quad4>
			<quad4 id="2484">4596,4604,4605,4597</quad4>
			<quad4 id="2485">4595,4603,4604,4596</quad4>
			<quad4 id="2486">2059,5299,4603,4595</quad4>
			<tri3 id="2487">2147,4774,4759</tri3>
			<quad4 id="2488">4773,4760,4759,4774</quad4>
			<quad4 id="2489">4772,4761,4760,4773</quad4>
			<quad4 id="2490">4771,4762,4761,4772</quad4>
			<quad4 id="2491">5335,2107,4762,4771</quad4>
			<tri3 id="2492">2147,4758,4774</tri3>
			<quad4 id="2493">4757,4773,4774,4758</quad4>
			<quad4 id="2494">4756,4772,4773,4757</quad4>
			<quad4 id="2495">4755,4771,4772,4756</quad4>
			<quad4 id="2496">2145,5335,4771,4755</quad4>
			<tri3 id="2497">5301,5286,4738</tri3>
			<quad4 id="2498">5285,4737,4738,5286</quad4>
			<quad4 id="2499">5284,4736,4737,5285</quad4>
			<quad4 id="2500">5283,4735,4736,5284</quad4>
			<quad4 id="2501">2051,2089,4735,5283</quad4>
			<tri3 id="2502">5301,4723,5286</tri3>
			<quad4 id="2503">4724,5285,5286,4723</quad4>
			<quad4 id="2504">4725,5284,5285,4724</quad4>
			<quad4 id="2505">4726,5283,5284,4725</quad4>
			<quad4 id="2506">2049,2051,5283,4726</quad4>
			<tri3 id="2507">5337,5294,4894</tri3>
			<quad4 id="2508">5293,4893,4894,5294</quad4>
			<quad4 id="2509">5292,4892,4893,5293</quad4>
			<quad4 id="2510">5291,4891,4892,5292</quad4>
			<quad4 id="2511">2179,2177,4891,5291</quad4>
			<tri3 id="2512">5337,4747,5294</tri3>
			<quad4 id="2513">4748,5293,5294,4747</quad4>
			<quad4 id="2514">4749,5292,5293,4748</quad4>
			<quad4 id="2515">4750,5291,5292,4749</quad4>
			<quad4 id="2516">2137,2179,5291,4750</quad4>
			<quad4 id="2517">4,46,48,6</quad4>
			<quad4 id="2518">6,48,50,8</quad4>
			<quad4 id="2519">8,50,52,10</quad4>
			<quad4 id="2520">10,52,54,12</quad4>
			<quad4 id="2521">12,54,56,14</quad4>
			<quad4 id="2522">14,56,58,16</quad4>
			<quad4 id="2523">16,58,60,18</quad4>
			<quad4 id="2524">18,60,62,20</quad4>
			<quad4 id="2525">20,62,64,22</quad4>
			<quad4 id="2526">22,64,66,24</quad4>
			<quad4 id="2527">24,66,68,26</quad4>
			<quad4 id="2528">26,68,70,28</quad4>
			<quad4 id="2529">28,70,72,30</quad4>
			<quad4 id="2530">30,72,74,32</quad4>
			<quad4 id="2531">32,74,76,34</quad4>
			<quad4 id="2532">34,76,78,36</quad4>
<!-- ... 2460 like lines cut -->
			<tri3 id="4993">2020,4594,4610</tri3>
			<quad4 id="4994">4610,4594,4593,4609</quad4>
			<quad4 id="4995">4609,4593,4592,4608</quad4>
			<quad4 id="4996">4608,4592,4591,4607</quad4>
			<quad4 id="4997">4607,4591,2018,5300</quad4>
			<tri3 id="4998">2020,4610,4602</tri3>
			<quad4 id="4999">4602,4610,4609,4601</quad4>
			<quad4 id="5000">4601,4609,4608,4600</quad4>
			<quad4 id="5001">4600,4608,4607,4599</quad4>
			<quad4 id="5002">4599,4607,5300,2060</quad4>
			<tri3 id="5003">2148,4767,4778</tri3>
			<quad4 id="5004">4778,4767,4768,4777</quad4>
			<quad4 id="5005">4777,4768,4769,4776</quad4>
			<quad4 id="5006">4776,4769,4770,4775</quad4>
			<quad4 id="5007">4775,4770,2108,5336</quad4>
			<tri3 id="5008">2148,4778,4766</tri3>
			<quad4 id="5009">4766,4778,4777,4765</quad4>
			<quad4 id="5010">4765,4777,4776,4764</quad4>
			<quad4 id="5011">4764,4776,4775,4763</quad4>
			<quad4 id="5012">4763,4775,5336,2146</quad4>
			<tri3 id="5013">5302,4746,5290</tri3>
			<quad4 id="5014">5290,4746,4745,5289</quad4>
			<quad4 id="5015">5289,4745,4744,5288</quad4>
			<quad4 id="5016">5288,4744,4743,5287</quad4>
			<quad4 id="5017">5287,4743,2090,2052</quad4>
			<tri3 id="5018">5302,5290,4727</tri3>
			<quad4 id="5019">4727,5290,5289,4728</quad4>
			<quad4 id="5020">4728,5289,5288,4729</quad4>
			<quad4 id="5021">4729,5288,5287,4730</quad4>
			<quad4 id="5022">4730,5287,2052,2050</quad4>
			<tri3 id="5023">5338,4898,5298</tri3>
			<quad4 id="5024">5298,4898,4897,5297</quad4>
			<quad4 id="5025">5297,4897,4896,5296</quad4>
			<quad4 id="5026">5296,4896,4895,5295</quad4>
			<quad4 id="5027">5295,4895,2178,2180</quad4>
			<tri3 id="5028">5338,5298,4751</tri3>
			<quad4 id="5029">4751,5298,5297,4752</quad4>
			<quad4 id="5030">4752,5297,5296,4753</quad4>
			<quad4 id="5031">4753,5296,5295,4754</quad4>
			<quad4 id="5032">4754,5295,2180,2138</quad4>
		</Surface>
		<Surface name="FixedFluidVelocity-Y-left">
			<quad4 id="1">5,3,4,6</quad4>
			<quad4 id="2">7,5,6,8</quad4>
			<quad4 id="3">9,7,8,10</quad4>
			<quad4 id="4">11,9,10,12</quad4>
			<quad4 id="5">13,11,12,14</quad4>
			<quad4 id="6">15,13,14,16</quad4>
			<quad4 id="7">17,15,16,18</quad4>
			<quad4 id="8">19,17,18,20</quad4>
			<quad4 id="9">21,19,20,22</quad4>
			<quad4 id="10">23,21,22,24</quad4>
			<quad4 id="11">25,23,24,26</quad4>
			<quad4 id="12">27,25,26,28</quad4>
			<quad4 id="13">29,27,28,30</quad4>
			<quad4 id="14">31,29,30,32</quad4>
			<quad4 id="15">33,31,32,34</quad4>
			<quad4 id="16">35,33,34,36</quad4>
			<quad4 id="17">37,35,36,38</quad4>
			<quad4 id="18">39,37,38,40</quad4>
			<quad4 id="19">41,39,40,42</quad4>
			<quad4 id="20">3,4207,4215,4</quad4>
<!-- ... 4 like lines cut -->
		</Surface>
		<Surface name="FixedDisplacement-Y-top">
			<quad4 id="1">83,41,42,84</quad4>
			<quad4 id="2">125,83,84,126</quad4>
			<quad4 id="3">167,125,126,168</quad4>
			<quad4 id="4">209,167,168,210</quad4>
			<quad4 id="5">251,209,210,252</quad4>
			<quad4 id="6">293,251,252,294</quad4>
			<quad4 id="7">335,293,294,336</quad4>
			<quad4 id="8">377,335,336,378</quad4>
			<quad4 id="9">419,377,378,420</quad4>
			<quad4 id="10">461,419,420,462</quad4>
			<quad4 id="11">503,461,462,504</quad4>
			<quad4 id="12">545,503,504,546</quad4>
			<quad4 id="13">587,545,546,588</quad4>
			<quad4 id="14">629,587,588,630</quad4>
			<quad4 id="15">671,629,630,672</quad4>
			<quad4 id="16">713,671,672,714</quad4>
			<quad4 id="17">755,713,714,756</quad4>
			<quad4 id="18">797,755,756,798</quad4>
			<quad4 id="19">839,797,798,840</quad4>
			<quad4 id="20">881,839,840,882</quad4>
<!-- ... 80 like lines cut -->
		</Surface>
		<Surface name="FSIInterfaceTraction1">
			<quad4 id="1">2059,2061,2062,2060</quad4>
			<quad4 id="2">2061,2063,2064,2062</quad4>
			<quad4 id="3">2063,2065,2066,2064</quad4>
			<quad4 id="4">2065,2067,2068,2066</quad4>
			<quad4 id="5">2067,2069,2070,2068</quad4>
			<quad4 id="6">2069,2071,2072,2070</quad4>
			<quad4 id="7">2071,2073,2074,2072</quad4>
			<quad4 id="8">2073,2075,2076,2074</quad4>
			<quad4 id="9">2075,2077,2078,2076</quad4>
			<quad4 id="10">2077,2079,2080,2078</quad4>
			<quad4 id="11">2079,2081,2082,2080</quad4>
			<quad4 id="12">2081,2083,2084,2082</quad4>
			<quad4 id="13">2083,2085,2086,2084</quad4>
			<quad4 id="14">2085,2087,2088,2086</quad4>
			<quad4 id="15">2087,5301,5302,2088</quad4>
			<quad4 id="16">5299,2059,2060,5300</quad4>
			<quad4 id="17">5301,2097,2098,5302</quad4>
			<quad4 id="18">2097,5337,5338,2098</quad4>
			<quad4 id="19">2109,2107,2108,2110</quad4>
			<quad4 id="20">2111,2109,2110,2112</quad4>
<!-- ... 14 like lines cut -->
		</Surface>
		<Surface name="FluidPressure-left">
			<quad4 id="1">5,3,4,6</quad4>
			<quad4 id="2">7,5,6,8</quad4>
			<quad4 id="3">9,7,8,10</quad4>
			<quad4 id="4">11,9,10,12</quad4>
			<quad4 id="5">13,11,12,14</quad4>
			<quad4 id="6">15,13,14,16</quad4>
			<quad4 id="7">17,15,16,18</quad4>
			<quad4 id="8">19,17,18,20</quad4>
			<quad4 id="9">21,19,20,22</quad4>
			<quad4 id="10">23,21,22,24</quad4>
			<quad4 id="11">25,23,24,26</quad4>
			<quad4 id="12">27,25,26,28</quad4>
			<quad4 id="13">29,27,28,30</quad4>
			<quad4 id="14">31,29,30,32</quad4>
			<quad4 id="15">33,31,32,34</quad4>
			<quad4 id="16">35,33,34,36</quad4>
			<quad4 id="17">37,35,36,38</quad4>
			<quad4 id="18">39,37,38,40</quad4>
			<quad4 id="19">41,39,40,42</quad4>
			<quad4 id="20">3,4207,4215,4</quad4>
<!-- ... 4 like lines cut -->
		</Surface>
		<Surface name="FluidPressure-right">
			<quad4 id="1">4163,4165,4166,4164</quad4>
			<quad4 id="2">4165,4167,4168,4166</quad4>
			<quad4 id="3">4167,4169,4170,4168</quad4>
			<quad4 id="4">4169,4171,4172,4170</quad4>
			<quad4 id="5">4171,4173,4174,4172</quad4>
			<quad4 id="6">4173,4175,4176,4174</quad4>
			<quad4 id="7">4175,4177,4178,4176</quad4>
			<quad4 id="8">4177,4179,4180,4178</quad4>
			<quad4 id="9">4179,4181,4182,4180</quad4>
			<quad4 id="10">4181,4183,4184,4182</quad4>
			<quad4 id="11">4183,4185,4186,4184</quad4>
			<quad4 id="12">4185,4187,4188,4186</quad4>
			<quad4 id="13">4187,4189,4190,4188</quad4>
			<quad4 id="14">4189,4191,4192,4190</quad4>
			<quad4 id="15">4191,4193,4194,4192</quad4>
			<quad4 id="16">4193,4195,4196,4194</quad4>
			<quad4 id="17">4195,4197,4198,4196</quad4>
			<quad4 id="18">4197,4199,4200,4198</quad4>
			<quad4 id="19">4199,4201,4202,4200</quad4>
			<quad4 id="20">5278,4163,4164,5282</quad4>
<!-- ... 4 like lines cut -->
		</Surface>
		<Surface name="FluidBackflowStabilization-left">
			<quad4 id="1">5,3,4,6</quad4>
			<quad4 id="2">7,5,6,8</quad4>
			<quad4 id="3">9,7,8,10</quad4>
			<quad4 id="4">11,9,10,12</quad4>
			<quad4 id="5">13,11,12,14</quad4>
			<quad4 id="6">15,13,14,16</quad4>
			<quad4 id="7">17,15,16,18</quad4>
			<quad4 id="8">19,17,18,20</quad4>
			<quad4 id="9">21,19,20,22</quad4>
			<quad4 id="10">23,21,22,24</quad4>
			<quad4 id="11">25,23,24,26</quad4>
			<quad4 id="12">27,25,26,28</quad4>
			<quad4 id="13">29,27,28,30</quad4>
			<quad4 id="14">31,29,30,32</quad4>
			<quad4 id="15">33,31,32,34</quad4>
			<quad4 id="16">35,33,34,36</quad4>
			<quad4 id="17">37,35,36,38</quad4>
			<quad4 id="18">39,37,38,40</quad4>
			<quad4 id="19">41,39,40,42</quad4>
			<quad4 id="20">3,4207,4215,4</quad4>
<!-- ... 4 like lines cut -->
		</Surface>
		<Surface name="FluidTangentialStabilization-left">
			<quad4 id="1">5,3,4,6</quad4>
			<quad4 id="2">7,5,6,8</quad4>
			<quad4 id="3">9,7,8,10</quad4>
			<quad4 id="4">11,9,10,12</quad4>
			<quad4 id="5">13,11,12,14</quad4>
			<quad4 id="6">15,13,14,16</quad4>
			<quad4 id="7">17,15,16,18</quad4>
			<quad4 id="8">19,17,18,20</quad4>
			<quad4 id="9">21,19,20,22</quad4>
			<quad4 id="10">23,21,22,24</quad4>
			<quad4 id="11">25,23,24,26</quad4>
			<quad4 id="12">27,25,26,28</quad4>
			<quad4 id="13">29,27,28,30</quad4>
			<quad4 id="14">31,29,30,32</quad4>
			<quad4 id="15">33,31,32,34</quad4>
			<quad4 id="16">35,33,34,36</quad4>
			<quad4 id="17">37,35,36,38</quad4>
			<quad4 id="18">39,37,38,40</quad4>
			<quad4 id="19">41,39,40,42</quad4>
			<quad4 id="20">3,4207,4215,4</quad4>
<!-- ... 4 like lines cut -->
		</Surface>
		<Surface name="FluidBackflowStabilization-right">
			<quad4 id="1">4163,4165,4166,4164</quad4>
			<quad4 id="2">4165,4167,4168,4166</quad4>
			<quad4 id="3">4167,4169,4170,4168</quad4>
			<quad4 id="4">4169,4171,4172,4170</quad4>
			<quad4 id="5">4171,4173,4174,4172</quad4>
			<quad4 id="6">4173,4175,4176,4174</quad4>
			<quad4 id="7">4175,4177,4178,4176</quad4>
			<quad4 id="8">4177,4179,4180,4178</quad4>
			<quad4 id="9">4179,4181,4182,4180</quad4>
			<quad4 id="10">4181,4183,4184,4182</quad4>
			<quad4 id="11">4183,4185,4186,4184</quad4>
			<quad4 id="12">4185,4187,4188,4186</quad4>
			<quad4 id="13">4187,4189,4190,4188</quad4>
			<quad4 id="14">4189,4191,4192,4190</quad4>
			<quad4 id="15">4191,4193,4194,4192</quad4>
			<quad4 id="16">4193,4195,4196,4194</quad4>
			<quad4 id="17">4195,4197,4198,4196</quad4>
			<quad4 id="18">4197,4199,4200,4198</quad4>
			<quad4 id="19">4199,4201,4202,4200</quad4>
			<quad4 id="20">5278,4163,4164,5282</quad4>
<!-- ... 4 like lines cut -->
		</Surface>
		<Surface name="FluidTangentialStabilization-right">
			<quad4 id="1">4163,4165,4166,4164</quad4>
			<quad4 id="2">4165,4167,4168,4166</quad4>
			<quad4 id="3">4167,4169,4170,4168</quad4>
			<quad4 id="4">4169,4171,4172,4170</quad4>
			<quad4 id="5">4171,4173,4174,4172</quad4>
			<quad4 id="6">4173,4175,4176,4174</quad4>
			<quad4 id="7">4175,4177,4178,4176</quad4>
			<quad4 id="8">4177,4179,4180,4178</quad4>
			<quad4 id="9">4179,4181,4182,4180</quad4>
			<quad4 id="10">4181,4183,4184,4182</quad4>
			<quad4 id="11">4183,4185,4186,4184</quad4>
			<quad4 id="12">4185,4187,4188,4186</quad4>
			<quad4 id="13">4187,4189,4190,4188</quad4>
			<quad4 id="14">4189,4191,4192,4190</quad4>
			<quad4 id="15">4191,4193,4194,4192</quad4>
			<quad4 id="16">4193,4195,4196,4194</quad4>
			<quad4 id="17">4195,4197,4198,4196</quad4>
			<quad4 id="18">4197,4199,4200,4198</quad4>
			<quad4 id="19">4199,4201,4202,4200</quad4>
			<quad4 id="20">5278,4163,4164,5282</quad4>
<!-- ... 4 like lines cut -->
		</Surface>
	</Mesh>
	<MeshDomains>
		<SolidDomain name="Fluid" mat="Fluid"/>
		<SolidDomain name="Fluid__2" mat="Fluid"/>
		<SolidDomain name="Flap" mat="Flap"/>
	</MeshDomains>
	<Boundary>
		<bc name="FixedDisplacement-X-left-right" type="fix" node_set="@surface:FixedDisplacement-X-left-right">
			<dofs>x</dofs>
		</bc>
		<bc name="FixedDisplacement-XY-bottom" type="fix" node_set="@surface:FixedDisplacement-XY-bottom">
			<dofs>x,y</dofs>
		</bc>
		<bc name="FixedDisplacement-Z-front-back" type="fix" node_set="@surface:FixedDisplacement-Z-front-back">
			<dofs>z</dofs>
		</bc>
		<bc name="FixedFluidVelocity-XY-no-slip-faces" type="fix" node_set="@surface:FixedFluidVelocity-XY-no-slip-faces">
			<dofs>wx,wy</dofs>
		</bc>
		<bc name="FixedFluidVelocity-Z-front-back" type="fix" node_set="@surface:FixedFluidVelocity-Z-front-back">
			<dofs>wz</dofs>
		</bc>
		<bc name="FixedFluidVelocity-Y-left" type="fix" node_set="@surface:FixedFluidVelocity-Y-left">
			<dofs>wy</dofs>
		</bc>
		<bc name="FixedDisplacement-Y-top" type="fix" node_set="@surface:FixedDisplacement-Y-top">
			<dofs>y</dofs>
		</bc>
	</Boundary>
	<Loads>
		<surface_load name="FSIInterfaceTraction1" type="fluid-FSI traction" surface="FSIInterfaceTraction1">
		</surface_load>
		<surface_load name="FluidPressure-left" type="fluid pressure" surface="FluidPressure-left">
			<pressure lc="1">500</pressure>
		</surface_load>
		<surface_load name="FluidPressure-right" type="fluid pressure" surface="FluidPressure-right">
			<pressure lc="2">0</pressure>
		</surface_load>
		<surface_load name="FluidBackflowStabilization-left" type="fluid backflow stabilization" surface="FluidBackflowStabilization-left">
			<beta lc="3">1</beta>
		</surface_load>
		<surface_load name="FluidTangentialStabilization-left" type="fluid tangential stabilization" surface="FluidTangentialStabilization-left">
			<beta lc="4">1</beta>
		</surface_load>
		<surface_load name="FluidBackflowStabilization-right" type="fluid backflow stabilization" surface="FluidBackflowStabilization-right">
			<beta lc="5">1</beta>
		</surface_load>
		<surface_load name="FluidTangentialStabilization-right" type="fluid tangential stabilization" surface="FluidTangentialStabilization-right">
			<beta lc="6">1</beta>
		</surface_load>
	</Loads>
	<LoadData>
		<load_controller id="1" type="loadcurve">
			<interpolate>SMOOTH</interpolate>
			<extend>REPEAT</extend>
			<points>
				<point>0,0</point>
				<point>0.0128205128205,0.00647486868104</point>
				<point>0.025641025641,0.0257317790264</point>
				<point>0.0384615384615,0.0572719871734</point>
				<point>0.0512820512821,0.100278618298</point>
				<point>0.0641025641026,0.153637823245</point>
				<point>0.0769230769231,0.215967626634</point>
				<point>0.0897435897436,0.285653719298</point>
				<point>0.102564102564,0.360891268042</point>
				<point>0.115384615385,0.439731659872</point>
				<point>0.128205128205,0.520132970055</point>
				<point>0.141025641026,0.600012846888</point>
				<point>0.153846153846,0.677302443521</point>
				<point>0.166666666667,0.75</point>
				<point>0.179487179487,0.816222687798</point>
				<point>0.192307692308,0.874255374086</point>
				<point>0.205128205128,0.922595042772</point>
				<point>0.217948717949,0.959989721829</point>
				<point>0.230769230769,0.985470908713</point>
				<point>0.24358974359,0.998378654067</point>
<!-- ... 22 like lines cut -->
			</points>
		</load_controller>
		<load_controller id="2" type="loadcurve">
			<interpolate>SMOOTH</interpolate>
			<points>
				<point>0,0</point>
				<point>1,0</point>
			</points>
		</load_controller>
		<load_controller id="3" type="loadcurve">
			<interpolate>STEP</interpolate>
			<points>
				<point>0,0</point>
				<point>1,1</point>
			</points>
		</load_controller>
		<load_controller id="4" type="loadcurve">
			<interpolate>STEP</interpolate>
			<points>
				<point>0,0</point>
				<point>1,1</point>
			</points>
		</load_controller>
		<load_controller id="5" type="loadcurve">
			<interpolate>STEP</interpolate>
			<points>
				<point>0,0</point>
				<point>1,1</point>
			</points>
		</load_controller>
		<load_controller id="6" type="loadcurve">
			<interpolate>STEP</interpolate>
			<points>
				<point>0,0</point>
				<point>1,1</point>
			</points>
		</load_controller>
	</LoadData>
	<Output>
		<plotfile type="febio">
			<var type="acceleration"/>
			<var type="displacement"/>
			<var type="velocity"/>
			<var type="fluid acceleration"/>
			<var type="fluid dilatation"/>
			<var type="fluid pressure"/>
			<var type="fluid rate of deformation"/>
			<var type="fluid stress"/>
			<var type="fluid velocity"/>
			<var type="fluid volume ratio"/>
			<var type="fluid vorticity"/>
			<var type="nodal fluid flux"/>
		</plotfile>
	</Output>
</febio_spec>
