<?xml version="1.0" encoding="ISO-8859-1"?>
<febio_spec version="3.0">
	<Module type="solid"/>
	<Control>
		<analysis>STATIC</analysis>
		<time_steps>10</time_steps>
		<step_size>0.1</step_size>
		<solver>
			<max_refs>15</max_refs>
			<max_ups>10</max_ups>
			<diverge_reform>1</diverge_reform>
			<reform_each_time_step>1</reform_each_time_step>
			<dtol>0.001</dtol>
			<etol>0.01</etol>
			<rtol>0</rtol>
			<lstol>0.9</lstol>
			<min_residual>1e-20</min_residual>
			<qnmethod>BFGS</qnmethod>
			<rhoi>0</rhoi>
		</solver>
		<time_stepper>
			<dtmin>0.0333333</dtmin>
			<dtmax>0.3</dtmax>
			<max_retries>5</max_retries>
			<opt_iter>6</opt_iter>
		</time_stepper>
	</Control>
	<Globals>
		<Constants>
			<T>8.314e-06</T>
			<R>298</R>
			<Fc>9.6485e-05</Fc>
		</Constants>
	</Globals>
	<Material>
		<material id="1" name="artery-wall" type="neo-Hookean">
			<density>1000</density>
			<E>11700</E>
			<v>0.3</v>
		</material>
		<material id="2" name="blood" type="neo-Hookean">
			<density>1000</density>
			<E>11700</E>
			<v>0.3</v>
		</material>
	</Material>
	<Mesh>
		<Nodes name="Object01">
			<node id="1">0,-5.7706883,-1.0600582e-15</node>
			<node id="2">0,-5.5740569,-1.493564</node>
			<node id="3">0,-5.5740569,1.493564</node>
			<node id="4">0,-4.9975627,-2.8853442</node>
			<node id="5">0,-4.9975627,2.8853442</node>
			<node id="6">-2.7755576e-17,-4.4170278,-0.037905663</node>
			<node id="7">0,-4.3008234,-1.1948205</node>
			<node id="8">3.4974943e-17,-4.2463575,1.1378081</node>
			<node id="9">0,-4.0804928,-4.0804928</node>
			<node id="10">0,-4.0804928,4.0804928</node>
			<node id="11">0,-3.8904631,-2.2461599</node>
			<node id="12">-2.7755576e-17,-3.8063055,2.2413412</node>
			<node id="13">1.110223e-16,-3.3527179,-0.094707207</node>
			<node id="14">0,-3.3241749,-1.0024067</node>
			<node id="15">6.7179409e-17,-3.1903989,0.85486482</node>
			<node id="16">0,-3.1851566,-3.1272121</node>
			<node id="17">1.110223e-16,-3.1272121,3.1851566</node>
			<node id="18">0,-3.0805361,-1.7785483</node>
			<node id="19">0,-2.8853442,-4.9975627</node>
			<node id="20">0,-2.8853442,4.9975627</node>
<!-- ... 13434 like lines cut -->
		</Nodes>
		<Elements type="hex8" name="fluid">
			<elem id="1">134,136,353,351,62,84,301,279</elem>
			<elem id="2">136,138,355,353,84,103,320,301</elem>
			<elem id="3">132,134,351,349,39,62,279,256</elem>
			<elem id="4">138,140,357,355,103,113,330,320</elem>
			<elem id="5">130,132,349,347,20,39,256,237</elem>
			<elem id="6">140,142,359,357,113,118,335,330</elem>
			<elem id="7">128,130,347,345,10,20,237,227</elem>
			<elem id="8">142,144,361,359,118,120,337,335</elem>
			<elem id="9">126,128,345,343,5,10,227,222</elem>
			<elem id="10">144,145,362,361,120,121,338,337</elem>
			<elem id="11">124,126,343,341,3,5,222,220</elem>
			<elem id="12">145,143,360,362,121,119,336,338</elem>
			<elem id="13">122,124,341,339,1,3,220,218</elem>
			<elem id="14">143,141,358,360,119,117,334,336</elem>
			<elem id="15">123,122,339,340,2,1,218,219</elem>
			<elem id="16">141,139,356,358,117,112,329,334</elem>
			<elem id="17">125,123,340,342,4,2,219,221</elem>
			<elem id="18">139,137,354,356,112,102,319,329</elem>
			<elem id="19">127,125,342,344,9,4,221,226</elem>
			<elem id="20">137,135,352,354,102,83,300,319</elem>
<!-- ... 5836 like lines cut -->
		</Elements>
		<Elements type="hex8" name="solid">
			<elem id="5857">266,263,252,257,49,46,35,40</elem>
			<elem id="5858">274,272,263,266,57,55,46,49</elem>
			<elem id="5859">287,285,272,274,70,68,55,57</elem>
			<elem id="5860">298,295,285,287,81,78,68,70</elem>
			<elem id="5861">309,307,295,298,92,90,78,81</elem>
			<elem id="5862">317,316,307,309,100,99,90,92</elem>
			<elem id="5863">263,259,248,252,46,42,31,35</elem>
			<elem id="5864">272,270,259,263,55,53,42,46</elem>
			<elem id="5865">285,283,270,272,68,66,53,55</elem>
			<elem id="5866">295,291,283,285,78,74,66,68</elem>
			<elem id="5867">307,303,291,295,90,86,74,78</elem>
			<elem id="5868">316,314,303,307,99,97,86,90</elem>
			<elem id="5869">259,254,244,248,42,37,27,31</elem>
			<elem id="5870">270,268,254,259,53,51,37,42</elem>
			<elem id="5871">283,278,268,270,66,61,51,53</elem>
			<elem id="5872">291,288,278,283,74,71,61,66</elem>
			<elem id="5873">303,302,288,291,86,85,71,74</elem>
			<elem id="5874">314,312,302,303,97,95,85,86</elem>
			<elem id="5875">254,253,242,244,37,36,25,27</elem>
			<elem id="5876">268,265,253,254,51,48,36,37</elem>
<!-- ... 6568 like lines cut -->
		</Elements>
		<NodeSet name="inlet-node-set">
			<n id="1"/>
			<n id="2"/>
			<n id="3"/>
			<n id="4"/>
			<n id="5"/>
			<n id="9"/>
			<n id="10"/>
			<n id="19"/>
			<n id="20"/>
			<n id="38"/>
			<n id="39"/>
			<n id="60"/>
			<n id="62"/>
			<n id="83"/>
			<n id="84"/>
			<n id="102"/>
			<n id="103"/>
			<n id="112"/>
			<n id="113"/>
			<n id="117"/>
<!-- ... 100 like lines cut -->
		</NodeSet>
		<NodeSet name="outlet-node-set">
			<n id="13238"/>
			<n id="13239"/>
			<n id="13240"/>
			<n id="13241"/>
			<n id="13242"/>
			<n id="13243"/>
			<n id="13244"/>
			<n id="13245"/>
			<n id="13246"/>
			<n id="13247"/>
			<n id="13248"/>
			<n id="13249"/>
			<n id="13250"/>
			<n id="13251"/>
			<n id="13252"/>
			<n id="13253"/>
			<n id="13254"/>
			<n id="13255"/>
			<n id="13256"/>
			<n id="13257"/>
<!-- ... 100 like lines cut -->
		</NodeSet>
	</Mesh>
	<MeshDomains>
		<SolidDomain name="fluid" mat="blood"/>
		<SolidDomain name="solid" mat="artery-wall"/>
	</MeshDomains>
	<Boundary>
		<bc name="FixedDisplacement01" type="fix" node_set="inlet-node-set">
			<dofs>x,y,z</dofs>
		</bc>
		<bc name="outlet-node-set" type="prescribe" node_set="outlet-node-set">
			<dof>x</dof>
			<scale lc="1">0.0002</scale>
			<relative>0</relative>
		</bc>
	</Boundary>
	<LoadData>
		<load_controller id="1" type="loadcurve">
			<interpolate>SMOOTH</interpolate>
			<extend>REPEAT</extend>
			<points>
				<point>0,0</point>
				<point>0.005005005,0.00024721396</point>
				<point>0.01001001,0.00098861137</point>
				<point>0.015015015,0.0022234591</point>
				<point>0.02002002,0.0039505361</point>
				<point>0.025025025,0.0061681344</point>
				<point>0.03003003,0.0088740613</point>
				<point>0.035035035,0.012065641</point>
				<point>0.04004004,0.015739717</point>
				<point>0.045045045,0.019892657</point>
				<point>0.05005005,0.024520354</point>
				<point>0.055055055,0.029618232</point>
				<point>0.06006006,0.035181249</point>
				<point>0.065065065,0.041203906</point>
				<point>0.07007007,0.047680245</point>
				<point>0.075075075,0.054603864</point>
				<point>0.08008008,0.061967915</point>
				<point>0.085085085,0.069765116</point>
				<point>0.09009009,0.077987758</point>
				<point>0.095095095,0.086627709</point>
<!-- ... 980 like lines cut -->
			</points>
		</load_controller>
	</LoadData>
	<Output>
		<plotfile type="febio">
			<var type="contact pressure"/>
			<var type="displacement"/>
			<var type="reaction forces"/>
			<var type="relative volume"/>
			<var type="stress"/>
		</plotfile>
	</Output>
</febio_spec>
