<?xml version="1.0" encoding="UTF-8"?>
<febio_spec version="3.0">
    <!--Created using GIBBON, 10-Jun-2021 18:48:33-->
    <Module type="solid"/>
    <Control>
        <analysis>DYNAMIC</analysis>
        <time_steps>1550</time_steps>
        <step_size>1.0000000e-03</step_size>
        <solver>
            <max_refs>5</max_refs>
            <max_ups>50</max_ups>
            <diverge_reform>0</diverge_reform>
            <reform_each_time_step>0</reform_each_time_step>
            <dtol>1.0000000e-03</dtol>
            <etol>1.0000000e-02</etol>
            <rtol>1.0000000e-03</rtol>
            <lstol>9.0000000e-01</lstol>
            <lsmin>1.0000000e-02</lsmin>
            <lsiter>5</lsiter>
            <min_residual>1.0000000e-16</min_residual>
            <optimize_bw>0</optimize_bw>
            <qnmethod>BROYDEN</qnmethod>
            <cmax>100000</cmax>
            <max_residual>10000000000</max_residual>
            <symmetric_stiffness>0</symmetric_stiffness>
        </solver>
        <time_stepper>
            <dtmin>1.0000000e-04</dtmin>
            <dtmax>1.0000000e-03</dtmax>
            <max_retries>9</max_retries>
            <opt_iter>53</opt_iter>
        </time_stepper>
        <plot_level>PLOT_MAJOR_ITRS</plot_level>
        <plot_range>0, -1</plot_range>
        <plot_stride>1</plot_stride>
        <plot_zero_state>0</plot_zero_state>
        <output_level>OUTPUT_MAJOR_ITRS</output_level>
    </Control>
    <Globals>
        <Constants>
            <T>0</T>
            <R>0</R>
            <Fc>0</Fc>
        </Constants>
    </Globals>
    <Material>
        <material id="1" name="artery-wall" type="neo-Hookean">
            <E>11700</E>
            <v>3.0000000e-01</v>
            <density>1000</density>
        </material>
        <material id="2" name="blood" type="neo-Hookean">
            <E>11700</E>
            <v>3.0000000e-01</v>
            <density>1000</density>
        </material>
    </Material>
    <Mesh>
        <Nodes name="nodes">
                <node id="1">0.0000000e+00, -5.7706883e+00, -1.0600582e-15</node>
                <node id="2">0.0000000e+00, -5.5740569e+00, -1.4935640e+00</node>
                <node id="3">0.0000000e+00, -5.5740569e+00, 1.4935640e+00</node>
                <node id="4">0.0000000e+00, -4.9975627e+00, -2.8853442e+00</node>
                <node id="5">0.0000000e+00, -4.9975627e+00, 2.8853442e+00</node>
                <node id="6">-2.7755576e-17, -4.4170278e+00, -3.7905663e-02</node>
                <node id="7">0.0000000e+00, -4.3008234e+00, -1.1948205e+00</node>
                <node id="8">3.4974943e-17, -4.2463575e+00, 1.1378081e+00</node>
                <node id="9">0.0000000e+00, -4.0804928e+00, -4.0804928e+00</node>
                <node id="10">0.0000000e+00, -4.0804928e+00, 4.0804928e+00</node>
                <node id="11">0.0000000e+00, -3.8904631e+00, -2.2461599e+00</node>
                <node id="12">-2.7755576e-17, -3.8063055e+00, 2.2413412e+00</node>
                <node id="13">1.1102230e-16, -3.3527179e+00, -9.4707207e-02</node>
                <node id="14">0.0000000e+00, -3.3241749e+00, -1.0024067e+00</node>
                <node id="15">6.7179409e-17, -3.1903989e+00, 8.5486482e-01</node>
                <node id="16">0.0000000e+00, -3.1851566e+00, -3.1272121e+00</node>
                <node id="17">1.1102230e-16, -3.1272121e+00, 3.1851566e+00</node>
                <node id="18">0.0000000e+00, -3.0805361e+00, -1.7785483e+00</node>
                <node id="19">0.0000000e+00, -2.8853442e+00, -4.9975627e+00</node>
                <node id="20">0.0000000e+00, -2.8853442e+00, 4.9975627e+00</node>
<!-- ... 13434 like lines cut -->
        </Nodes>
        <NodeSet name="inlet-node-set">
                <node id="1"/>
                <node id="2"/>
                <node id="3"/>
                <node id="4"/>
                <node id="5"/>
                <node id="9"/>
                <node id="10"/>
                <node id="19"/>
                <node id="20"/>
                <node id="38"/>
                <node id="39"/>
                <node id="60"/>
                <node id="62"/>
                <node id="83"/>
                <node id="84"/>
                <node id="102"/>
                <node id="103"/>
                <node id="112"/>
                <node id="113"/>
                <node id="117"/>
<!-- ... 100 like lines cut -->
        </NodeSet>
        <NodeSet name="outlet-node-set">
                <node id="13238"/>
                <node id="13239"/>
                <node id="13240"/>
                <node id="13241"/>
                <node id="13242"/>
                <node id="13243"/>
                <node id="13244"/>
                <node id="13245"/>
                <node id="13246"/>
                <node id="13247"/>
                <node id="13248"/>
                <node id="13249"/>
                <node id="13250"/>
                <node id="13251"/>
                <node id="13252"/>
                <node id="13253"/>
                <node id="13254"/>
                <node id="13255"/>
                <node id="13256"/>
                <node id="13257"/>
<!-- ... 100 like lines cut -->
        </NodeSet>
        <Elements name="fluid" type="hex8">
                <elem id="1">134, 136, 353, 351, 62, 84, 301, 279</elem>
                <elem id="2">136, 138, 355, 353, 84, 103, 320, 301</elem>
                <elem id="3">132, 134, 351, 349, 39, 62, 279, 256</elem>
                <elem id="4">138, 140, 357, 355, 103, 113, 330, 320</elem>
                <elem id="5">130, 132, 349, 347, 20, 39, 256, 237</elem>
                <elem id="6">140, 142, 359, 357, 113, 118, 335, 330</elem>
                <elem id="7">128, 130, 347, 345, 10, 20, 237, 227</elem>
                <elem id="8">142, 144, 361, 359, 118, 120, 337, 335</elem>
                <elem id="9">126, 128, 345, 343, 5, 10, 227, 222</elem>
                <elem id="10">144, 145, 362, 361, 120, 121, 338, 337</elem>
                <elem id="11">124, 126, 343, 341, 3, 5, 222, 220</elem>
                <elem id="12">145, 143, 360, 362, 121, 119, 336, 338</elem>
                <elem id="13">122, 124, 341, 339, 1, 3, 220, 218</elem>
                <elem id="14">143, 141, 358, 360, 119, 117, 334, 336</elem>
                <elem id="15">123, 122, 339, 340, 2, 1, 218, 219</elem>
                <elem id="16">141, 139, 356, 358, 117, 112, 329, 334</elem>
                <elem id="17">125, 123, 340, 342, 4, 2, 219, 221</elem>
                <elem id="18">139, 137, 354, 356, 112, 102, 319, 329</elem>
                <elem id="19">127, 125, 342, 344, 9, 4, 221, 226</elem>
                <elem id="20">137, 135, 352, 354, 102, 83, 300, 319</elem>
<!-- ... 5836 like lines cut -->
        </Elements>
        <Elements name="solid" type="hex8">
                <elem id="5857">266, 263, 252, 257, 49, 46, 35, 40</elem>
                <elem id="5858">274, 272, 263, 266, 57, 55, 46, 49</elem>
                <elem id="5859">287, 285, 272, 274, 70, 68, 55, 57</elem>
                <elem id="5860">298, 295, 285, 287, 81, 78, 68, 70</elem>
                <elem id="5861">309, 307, 295, 298, 92, 90, 78, 81</elem>
                <elem id="5862">317, 316, 307, 309, 100, 99, 90, 92</elem>
                <elem id="5863">263, 259, 248, 252, 46, 42, 31, 35</elem>
                <elem id="5864">272, 270, 259, 263, 55, 53, 42, 46</elem>
                <elem id="5865">285, 283, 270, 272, 68, 66, 53, 55</elem>
                <elem id="5866">295, 291, 283, 285, 78, 74, 66, 68</elem>
                <elem id="5867">307, 303, 291, 295, 90, 86, 74, 78</elem>
                <elem id="5868">316, 314, 303, 307, 99, 97, 86, 90</elem>
                <elem id="5869">259, 254, 244, 248, 42, 37, 27, 31</elem>
                <elem id="5870">270, 268, 254, 259, 53, 51, 37, 42</elem>
                <elem id="5871">283, 278, 268, 270, 66, 61, 51, 53</elem>
                <elem id="5872">291, 288, 278, 283, 74, 71, 61, 66</elem>
                <elem id="5873">303, 302, 288, 291, 86, 85, 71, 74</elem>
                <elem id="5874">314, 312, 302, 303, 97, 95, 85, 86</elem>
                <elem id="5875">254, 253, 242, 244, 37, 36, 25, 27</elem>
                <elem id="5876">268, 265, 253, 254, 51, 48, 36, 37</elem>
<!-- ... 6568 like lines cut -->
        </Elements>
        <Surface name="inlet-solid">
                <quad4 id="1">123, 122, 1, 2</quad4>
                <quad4 id="2">122, 124, 3, 1</quad4>
                <quad4 id="3">125, 123, 2, 4</quad4>
                <quad4 id="4">124, 126, 5, 3</quad4>
                <quad4 id="5">127, 125, 4, 9</quad4>
                <quad4 id="6">126, 128, 10, 5</quad4>
                <quad4 id="7">129, 127, 9, 19</quad4>
                <quad4 id="8">128, 130, 20, 10</quad4>
                <quad4 id="9">131, 129, 19, 38</quad4>
                <quad4 id="10">130, 132, 39, 20</quad4>
                <quad4 id="11">133, 131, 38, 60</quad4>
                <quad4 id="12">132, 134, 62, 39</quad4>
                <quad4 id="13">135, 133, 60, 83</quad4>
                <quad4 id="14">134, 136, 84, 62</quad4>
                <quad4 id="15">137, 135, 83, 102</quad4>
                <quad4 id="16">136, 138, 103, 84</quad4>
                <quad4 id="17">139, 137, 102, 112</quad4>
                <quad4 id="18">138, 140, 113, 103</quad4>
                <quad4 id="19">141, 139, 112, 117</quad4>
                <quad4 id="20">140, 142, 118, 113</quad4>
<!-- ... 76 like lines cut -->
        </Surface>
        <Surface name="inlet-fluid">
                <quad4 id="1">7, 2, 1, 6</quad4>
                <quad4 id="2">6, 1, 3, 8</quad4>
                <quad4 id="3">11, 4, 2, 7</quad4>
                <quad4 id="4">8, 3, 5, 12</quad4>
                <quad4 id="5">16, 9, 4, 11</quad4>
                <quad4 id="6">12, 5, 10, 17</quad4>
                <quad4 id="7">14, 7, 6, 13</quad4>
                <quad4 id="8">13, 6, 8, 15</quad4>
                <quad4 id="9">18, 11, 7, 14</quad4>
                <quad4 id="10">15, 8, 12, 21</quad4>
                <quad4 id="11">29, 19, 9, 16</quad4>
                <quad4 id="12">17, 10, 20, 28</quad4>
                <quad4 id="13">24, 16, 11, 18</quad4>
                <quad4 id="14">21, 12, 17, 26</quad4>
                <quad4 id="15">23, 14, 13, 25</quad4>
                <quad4 id="16">25, 13, 15, 27</quad4>
                <quad4 id="17">22, 18, 14, 23</quad4>
                <quad4 id="18">27, 15, 21, 31</quad4>
                <quad4 id="19">34, 29, 16, 24</quad4>
                <quad4 id="20">26, 17, 28, 33</quad4>
<!-- ... 88 like lines cut -->
        </Surface>
        <Surface name="outlet-solid">
                <quad4 id="1">13238, 13239, 13263, 13262</quad4>
                <quad4 id="2">13240, 13238, 13262, 13264</quad4>
                <quad4 id="3">13239, 13241, 13265, 13263</quad4>
                <quad4 id="4">13242, 13240, 13264, 13266</quad4>
                <quad4 id="5">13241, 13243, 13267, 13265</quad4>
                <quad4 id="6">13244, 13242, 13266, 13268</quad4>
                <quad4 id="7">13243, 13245, 13269, 13267</quad4>
                <quad4 id="8">13246, 13244, 13268, 13270</quad4>
                <quad4 id="9">13245, 13247, 13271, 13269</quad4>
                <quad4 id="10">13248, 13246, 13270, 13272</quad4>
                <quad4 id="11">13247, 13249, 13273, 13271</quad4>
                <quad4 id="12">13250, 13248, 13272, 13274</quad4>
                <quad4 id="13">13249, 13251, 13275, 13273</quad4>
                <quad4 id="14">13252, 13250, 13274, 13276</quad4>
                <quad4 id="15">13251, 13253, 13277, 13275</quad4>
                <quad4 id="16">13254, 13252, 13276, 13278</quad4>
                <quad4 id="17">13253, 13255, 13279, 13277</quad4>
                <quad4 id="18">13256, 13254, 13278, 13280</quad4>
                <quad4 id="19">13255, 13257, 13281, 13279</quad4>
                <quad4 id="20">13258, 13256, 13280, 13282</quad4>
<!-- ... 76 like lines cut -->
        </Surface>
        <Surface name="outlet-fluid">
                <quad4 id="1">13339, 13334, 13335, 13340</quad4>
                <quad4 id="2">13341, 13336, 13334, 13339</quad4>
                <quad4 id="3">13340, 13335, 13337, 13344</quad4>
                <quad4 id="4">13345, 13338, 13336, 13341</quad4>
                <quad4 id="5">13344, 13337, 13342, 13349</quad4>
                <quad4 id="6">13350, 13343, 13338, 13345</quad4>
                <quad4 id="7">13346, 13339, 13340, 13347</quad4>
                <quad4 id="8">13348, 13341, 13339, 13346</quad4>
                <quad4 id="9">13347, 13340, 13344, 13351</quad4>
                <quad4 id="10">13354, 13345, 13341, 13348</quad4>
                <quad4 id="11">13349, 13342, 13352, 13362</quad4>
                <quad4 id="12">13361, 13353, 13343, 13350</quad4>
                <quad4 id="13">13351, 13344, 13349, 13357</quad4>
                <quad4 id="14">13359, 13350, 13345, 13354</quad4>
                <quad4 id="15">13358, 13346, 13347, 13356</quad4>
                <quad4 id="16">13360, 13348, 13346, 13358</quad4>
                <quad4 id="17">13356, 13347, 13351, 13355</quad4>
                <quad4 id="18">13364, 13354, 13348, 13360</quad4>
                <quad4 id="19">13357, 13349, 13362, 13367</quad4>
                <quad4 id="20">13366, 13361, 13350, 13359</quad4>
<!-- ... 88 like lines cut -->
        </Surface>
        <Surface name="FSIInterface">
                <quad4 id="1">2, 1, 218, 219</quad4>
                <quad4 id="2">1, 3, 220, 218</quad4>
                <quad4 id="3">4, 2, 219, 221</quad4>
                <quad4 id="4">3, 5, 222, 220</quad4>
                <quad4 id="5">9, 4, 221, 226</quad4>
                <quad4 id="6">5, 10, 227, 222</quad4>
                <quad4 id="7">19, 9, 226, 236</quad4>
                <quad4 id="8">10, 20, 237, 227</quad4>
                <quad4 id="9">38, 19, 236, 255</quad4>
                <quad4 id="10">20, 39, 256, 237</quad4>
                <quad4 id="11">60, 38, 255, 277</quad4>
                <quad4 id="12">39, 62, 279, 256</quad4>
                <quad4 id="13">83, 60, 277, 300</quad4>
                <quad4 id="14">62, 84, 301, 279</quad4>
                <quad4 id="15">102, 83, 300, 319</quad4>
                <quad4 id="16">84, 103, 320, 301</quad4>
                <quad4 id="17">112, 102, 319, 329</quad4>
                <quad4 id="18">103, 113, 330, 320</quad4>
                <quad4 id="19">117, 112, 329, 334</quad4>
                <quad4 id="20">113, 118, 335, 330</quad4>
<!-- ... 1444 like lines cut -->
        </Surface>
    </Mesh>
    <MeshDomains>
        <SolidDomain mat="artery-wall" name="solid"/>
        <SolidDomain mat="blood" name="fluid"/>
    </MeshDomains>
    <Boundary>
        <bc node_set="inlet-node-set" type="fix">
            <dofs>x,y,z</dofs>
        </bc>
        <bc node_set="outlet-node-set" type="prescribe">
            <dof>x</dof>
            <scale lc="1">2.0000000e-04</scale>
            <relative>0</relative>
        </bc>
    </Boundary>
    <LoadData>
        <load_controller id="1" type="loadcurve">
            <interpolate>SMOOTH</interpolate>
            <extend>REPEAT</extend>
            <points>
                    <point>0.0000000e+00, 0.0000000e+00</point>
                    <point>5.0050050e-03, 2.4721396e-04</point>
                    <point>1.0010010e-02, 9.8861137e-04</point>
                    <point>1.5015015e-02, 2.2234591e-03</point>
                    <point>2.0020020e-02, 3.9505361e-03</point>
                    <point>2.5025025e-02, 6.1681344e-03</point>
                    <point>3.0030030e-02, 8.8740613e-03</point>
                    <point>3.5035035e-02, 1.2065641e-02</point>
                    <point>4.0040040e-02, 1.5739717e-02</point>
                    <point>4.5045045e-02, 1.9892657e-02</point>
                    <point>5.0050050e-02, 2.4520354e-02</point>
                    <point>5.5055055e-02, 2.9618232e-02</point>
                    <point>6.0060060e-02, 3.5181249e-02</point>
                    <point>6.5065065e-02, 4.1203906e-02</point>
                    <point>7.0070070e-02, 4.7680245e-02</point>
                    <point>7.5075075e-02, 5.4603864e-02</point>
                    <point>8.0080080e-02, 6.1967915e-02</point>
                    <point>8.5085085e-02, 6.9765116e-02</point>
                    <point>9.0090090e-02, 7.7987758e-02</point>
                    <point>9.5095095e-02, 8.6627709e-02</point>
<!-- ... 980 like lines cut -->
            </points>
        </load_controller>
        <load_controller id="2" type="loadcurve">
            <interpolate>STEP</interpolate>
            <points>
                    <point>0, 0</point>
                    <point>1, 1</point>
            </points>
        </load_controller>
        <load_controller id="3" type="loadcurve">
            <interpolate>STEP</interpolate>
            <points>
                    <point>0, 0</point>
                    <point>1, 1</point>
            </points>
        </load_controller>
        <load_controller id="4" type="loadcurve">
            <interpolate>SMOOTH</interpolate>
            <points>
                    <point>0, 0</point>
                    <point>1, 1</point>
            </points>
        </load_controller>
        <load_controller id="5" type="loadcurve">
            <interpolate>STEP</interpolate>
            <points>
                    <point>0, 0</point>
                    <point>1, 1</point>
            </points>
        </load_controller>
        <load_controller id="6" type="loadcurve">
            <interpolate>STEP</interpolate>
            <points>
                    <point>0, 0</point>
                    <point>1, 1</point>
            </points>
        </load_controller>
    </LoadData>
    <Output>
        <plotfile type="febio">
            <var type="displacement"/>
            <var type="stress"/>
            <var type="relative volume"/>
            <var type="reaction forces"/>
            <var type="contact pressure"/>
        </plotfile>
    </Output>
</febio_spec>
